*SPEF "ieee 1481-1999"
*DESIGN "gcd"
*DATE "04:48:37 Monday June 08, 2026"
*VENDOR "The OpenROAD Project"
*PROGRAM "OpenROAD"
*VERSION "26Q2-1846-g49bd051a10"
*DESIGN_FLOW "NAME_SCOPE LOCAL" "PIN_CAP NONE"
*DIVIDER /
*DELIMITER :
*BUS_DELIMITER []
*T_UNIT 1 NS
*C_UNIT 1 PF
*R_UNIT 1 OHM
*L_UNIT 1 HENRY

*NAME_MAP
*2 _001_
*3 _002_
*4 _003_
*5 _004_
*6 _005_
*7 _006_
*8 _007_
*9 _008_
*10 _009_
*11 _010_
*12 _011_
*13 _012_
*14 _013_
*15 _014_
*16 _015_
*17 _016_
*18 _017_
*19 _018_
*20 _019_
*21 _020_
*22 _021_
*23 _022_
*24 _023_
*25 _024_
*26 _025_
*27 _026_
*28 _027_
*29 _028_
*30 _029_
*31 _030_
*32 _031_
*33 _032_
*34 _033_
*35 _034_
*36 _035_
*37 _036_
*38 _037_
*39 _038_
*40 _039_
*41 _040_
*42 _041_
*43 _042_
*44 _043_
*45 _044_
*46 _045_
*47 _046_
*48 _047_
*49 _048_
*50 _049_
*51 _050_
*52 _051_
*53 _052_
*54 _053_
*55 _054_
*56 _055_
*57 _056_
*58 _057_
*59 _058_
*60 _059_
*61 _060_
*62 _061_
*63 _062_
*64 _063_
*65 _064_
*66 _065_
*67 _066_
*68 _067_
*69 _068_
*70 _069_
*71 _070_
*72 _071_
*73 _072_
*74 _073_
*75 _074_
*76 _075_
*77 _076_
*78 _077_
*79 _078_
*80 _079_
*81 _080_
*82 _081_
*83 _082_
*84 _083_
*85 _084_
*86 _085_
*87 _086_
*88 _087_
*89 _088_
*90 _089_
*91 _090_
*92 _091_
*93 _092_
*94 _093_
*95 _094_
*96 _095_
*97 _096_
*98 _097_
*99 _098_
*100 _099_
*101 _100_
*102 _101_
*103 _102_
*104 _103_
*105 _104_
*106 _105_
*107 _106_
*108 _107_
*109 _108_
*110 _109_
*111 _110_
*112 _111_
*113 _112_
*114 _113_
*115 _114_
*116 _115_
*117 _116_
*118 _117_
*119 _118_
*255 _119_/_000_
*252 _119_/_001_
*247 _119_/_002_
*242 _119_/_003_
*240 _119_/_004_
*239 _119_/_005_
*237 _119_/_006_
*235 _119_/_007_
*233 _119_/_008_
*231 _119_/_009_
*229 _119_/_010_
*228 _119_/_011_
*227 _119_/_012_
*224 _119_/_013_
*222 _119_/_014_
*221 _119_/_015_
*220 _119_/_016_
*219 _119_/_017_
*218 _119_/_018_
*216 _119_/_019_
*214 _119_/_020_
*213 _119_/_021_
*211 _119_/_022_
*209 _119_/_023_
*208 _119_/_024_
*207 _119_/_025_
*206 _119_/_026_
*204 _119_/_027_
*202 _119_/_028_
*200 _119_/_029_
*198 _119_/_030_
*196 _119_/_031_
*195 _119_/_032_
*194 _119_/_033_
*193 _119_/_034_
*199 _119_/_035_
*191 _119_/_036_
*190 _119_/_037_
*189 _119_/_038_
*187 _119_/_039_
*185 _119_/_040_
*184 _119_/_041_
*182 _119_/_042_
*180 _119_/_043_
*179 _119_/_044_
*178 _119_/_045_
*176 _119_/_046_
*174 _119_/_047_
*1 _119_/_048_
*262 _119_/_049_
*264 _119_/_050_
*265 _119_/_051_
*266 _119_/_052_
*267 _119_/_053_
*269 _119_/_054_
*246 _119_/_055_
*272 _119_/_056_
*256 _119_/_057_
*258 _119_/_058_
*274 _119_/_059_
*276 _119_/_060_
*257 _119_/_061_
*278 _119_/_062_
*280 _119_/_063_
*282 _119_/_064_
*283 _119_/_065_
*284 _119_/_066_
*285 _119_/_067_
*286 _119_/_068_
*287 _119_/_069_
*288 _119_/_070_
*289 _119_/_071_
*290 _119_/_072_
*291 _119_/_073_
*292 _119_/_074_
*293 _119_/_075_
*299 _119_/_076_
*300 _119_/_077_
*301 _119_/_078_
*304 _119_/_079_
*305 _119_/_080_
*306 _119_/_081_
*307 _119_/_082_
*308 _119_/_083_
*310 _119_/_084_
*197 _119_/_085_
*311 _119_/_086_
*313 _119_/_087_
*314 _119_/_088_
*315 _119_/_089_
*316 _119_/_090_
*251 _119_/_091_
*319 _119_/_092_
*320 _119_/_093_
*321 _119_/_094_
*322 _119_/_095_
*323 _119_/_096_
*324 _119_/_097_
*325 _119_/_098_
*326 _119_/_099_
*328 _119_/_100_
*329 _119_/_101_
*225 _119_/_102_
*331 _119_/_103_
*332 _119_/_104_
*334 _119_/_105_
*223 _119_/_106_
*335 _119_/_107_
*336 _119_/_108_
*337 _119_/_109_
*250 _119_/_110_
*338 _119_/_111_
*340 _119_/_112_
*341 _119_/_113_
*254 _119_/_114_
*343 _119_/_115_
*344 _119_/_116_
*345 _119_/_117_
*346 _119_/_118_
*238 _119_/_119_
*347 _119_/_120_
*349 _119_/_121_
*350 _119_/_122_
*351 _119_/_123_
*352 _119_/_124_
*253 _119_/_125_
*249 _119_/_126_
*248 _119_/_127_
*440 _119_/net163
*366 _119_/net164
*441 _119_/net165
*367 _119_/net166
*442 _119_/net167
*369 _119_/net169
*443 _119_/net170
*370 _119_/net171
*444 _119_/net172
*371 _119_/net173
*372 _119_/net174
*373 _119_/net175
*374 _119_/net176
*375 _119_/net177
*376 _119_/net178
*377 _119_/net179
*378 _119_/net180
*379 _119_/net181
*380 _119_/net182
*381 _119_/net183
*382 _119_/net184
*445 _119_/net185
*383 _119_/net186
*386 _119_/net187
*385 _119_/net188
*387 _119_/net189
*391 _119_/net197
*394 _119_/net198
*390 _119_/net199
*396 _119_/net200
*395 _119_/net201
*397 _119_/net202
*398 _119_/net203
*399 _119_/net204
*389 _119_/net205
*402 _119_/net206
*401 _119_/net207
*422 _119_/net227
*458 _119_/net247
*460 _119_/net249
*461 _119_/net250
*462 _119_/net251
*463 _119_/net252
*465 _119_/net254
*466 _119_/net255
*467 _119_/net256
*361 _119_/net258
*365 _119_/net262
*368 _119_/net263
*364 _119_/net265
*120 clk
*435 clknet_0_clk
*451 clknet_2_0__leaf_clk
*452 clknet_2_1__leaf_clk
*453 clknet_2_2__leaf_clk
*454 clknet_2_3__leaf_clk
*128 net10
*129 net11
*130 net12
*131 net13
*132 net14
*133 net15
*436 net151
*437 net152
*360 net153
*359 net154
*358 net155
*438 net156
*439 net157
*363 net158
*362 net159
*134 net16
*135 net17
*136 net18
*137 net19
*388 net190
*384 net191
*446 net192
*447 net193
*448 net194
*392 net195
*393 net196
*138 net20
*403 net208
*404 net209
*139 net21
*405 net210
*406 net211
*407 net212
*408 net213
*409 net214
*410 net215
*411 net216
*412 net217
*414 net218
*415 net219
*140 net22
*416 net220
*417 net221
*413 net222
*418 net223
*419 net224
*420 net225
*421 net226
*400 net228
*423 net229
*141 net23
*424 net230
*425 net231
*426 net232
*427 net233
*428 net234
*429 net235
*430 net236
*431 net237
*449 net239
*142 net24
*432 net240
*450 net241
*433 net242
*434 net243
*455 net244
*456 net245
*457 net246
*459 net248
*143 net25
*464 net253
*144 net26
*145 net27
*146 net28
*468 net280
*469 net281
*470 net282
*471 net283
*472 net284
*473 net285
*474 net286
*475 net287
*476 net289
*147 net29
*477 net290
*121 net3
*148 net30
*149 net31
*150 net32
*151 net33
*152 net34
*154 net35
*155 net36
*172 net37
*153 net38
*156 net39
*122 net4
*157 net40
*158 net41
*159 net42
*160 net43
*161 net44
*162 net45
*163 net46
*164 net47
*165 net48
*166 net49
*123 net5
*167 net50
*168 net51
*169 net52
*170 net53
*171 net54
*173 net55
*124 net6
*125 net7
*126 net8
*127 net9
*259 net_1
*260 net_2
*342 req_msg[0]
*339 req_msg[10]
*333 req_msg[11]
*330 req_msg[12]
*327 req_msg[13]
*318 req_msg[14]
*317 req_msg[15]
*312 req_msg[16]
*309 req_msg[17]
*303 req_msg[18]
*302 req_msg[19]
*298 req_msg[1]
*297 req_msg[20]
*296 req_msg[21]
*295 req_msg[22]
*294 req_msg[23]
*281 req_msg[24]
*279 req_msg[25]
*277 req_msg[26]
*275 req_msg[27]
*273 req_msg[28]
*271 req_msg[29]
*270 req_msg[2]
*268 req_msg[30]
*263 req_msg[31]
*261 req_msg[3]
*245 req_msg[4]
*244 req_msg[5]
*243 req_msg[6]
*241 req_msg[7]
*236 req_msg[8]
*234 req_msg[9]
*217 req_rdy
*232 req_val
*230 reset
*215 resp_msg[0]
*212 resp_msg[10]
*210 resp_msg[11]
*205 resp_msg[12]
*203 resp_msg[13]
*201 resp_msg[14]
*192 resp_msg[15]
*188 resp_msg[1]
*186 resp_msg[2]
*183 resp_msg[3]
*181 resp_msg[4]
*177 resp_msg[5]
*175 resp_msg[6]
*354 resp_msg[7]
*355 resp_msg[8]
*356 resp_msg[9]
*226 resp_rdy
*357 resp_val
*992 FILLER_0_0
*996 FILLER_0_103
*997 FILLER_0_105
*998 FILLER_0_114
*999 FILLER_0_118
*1000 FILLER_0_121
*1001 FILLER_0_151
*1002 FILLER_0_159
*1003 FILLER_0_163
*993 FILLER_0_44
*994 FILLER_0_61
*995 FILLER_0_99
*1077 FILLER_10_0
*1083 FILLER_10_104
*1084 FILLER_10_108
*1085 FILLER_10_151
*1086 FILLER_10_161
*1087 FILLER_10_163
*1078 FILLER_10_19
*1079 FILLER_10_21
*1080 FILLER_10_31
*1081 FILLER_10_49
*1082 FILLER_10_71
*1090 FILLER_11_100
*1091 FILLER_11_108
*1092 FILLER_11_112
*1093 FILLER_11_121
*1094 FILLER_11_125
*1095 FILLER_11_139
*1088 FILLER_11_4
*1089 FILLER_11_81
*1097 FILLER_12_105
*1098 FILLER_12_114
*1099 FILLER_12_122
*1100 FILLER_12_151
*1101 FILLER_12_163
*1096 FILLER_12_91
*1105 FILLER_13_108
*1106 FILLER_13_116
*1107 FILLER_13_161
*1108 FILLER_13_163
*1102 FILLER_13_20
*1103 FILLER_13_53
*1104 FILLER_13_85
*1109 FILLER_14_0
*1115 FILLER_14_101
*1116 FILLER_14_109
*1117 FILLER_14_115
*1118 FILLER_14_163
*1110 FILLER_14_2
*1111 FILLER_14_39
*1112 FILLER_14_68
*1113 FILLER_14_89
*1114 FILLER_14_91
*1119 FILLER_15_0
*1125 FILLER_15_100
*1126 FILLER_15_108
*1121 FILLER_15_11
*1122 FILLER_15_13
*1127 FILLER_15_136
*1128 FILLER_15_153
*1120 FILLER_15_2
*1123 FILLER_15_61
*1124 FILLER_15_74
*1129 FILLER_16_0
*1137 FILLER_16_101
*1138 FILLER_16_103
*1139 FILLER_16_107
*1130 FILLER_16_14
*1140 FILLER_16_146
*1141 FILLER_16_151
*1142 FILLER_16_159
*1143 FILLER_16_163
*1131 FILLER_16_20
*1132 FILLER_16_31
*1133 FILLER_16_39
*1134 FILLER_16_62
*1135 FILLER_16_91
*1136 FILLER_16_95
*1144 FILLER_17_0
*1146 FILLER_17_112
*1147 FILLER_17_121
*1148 FILLER_17_128
*1149 FILLER_17_136
*1150 FILLER_17_144
*1151 FILLER_17_152
*1152 FILLER_17_161
*1153 FILLER_17_163
*1145 FILLER_17_51
*1154 FILLER_18_0
*1157 FILLER_18_107
*1158 FILLER_18_121
*1159 FILLER_18_130
*1160 FILLER_18_132
*1161 FILLER_18_145
*1162 FILLER_18_151
*1163 FILLER_18_161
*1164 FILLER_18_163
*1155 FILLER_18_26
*1156 FILLER_18_91
*1171 FILLER_19_115
*1166 FILLER_19_12
*1172 FILLER_19_127
*1173 FILLER_19_129
*1167 FILLER_19_61
*1168 FILLER_19_76
*1169 FILLER_19_78
*1165 FILLER_19_8
*1170 FILLER_19_94
*1008 FILLER_1_101
*1009 FILLER_1_119
*1010 FILLER_1_121
*1011 FILLER_1_125
*1012 FILLER_1_162
*1004 FILLER_1_24
*1005 FILLER_1_76
*1006 FILLER_1_82
*1007 FILLER_1_97
*1174 FILLER_20_11
*1181 FILLER_20_111
*1182 FILLER_20_126
*1175 FILLER_20_13
*1183 FILLER_20_143
*1184 FILLER_20_163
*1176 FILLER_20_29
*1177 FILLER_20_31
*1178 FILLER_20_73
*1179 FILLER_20_87
*1180 FILLER_20_89
*1185 FILLER_21_0
*1189 FILLER_21_110
*1190 FILLER_21_112
*1191 FILLER_21_119
*1192 FILLER_21_121
*1186 FILLER_21_42
*1187 FILLER_21_61
*1188 FILLER_21_82
*1196 FILLER_22_104
*1197 FILLER_22_124
*1198 FILLER_22_131
*1199 FILLER_22_140
*1200 FILLER_22_149
*1201 FILLER_22_151
*1194 FILLER_22_45
*1195 FILLER_22_65
*1193 FILLER_22_8
*1202 FILLER_23_0
*1207 FILLER_23_108
*1208 FILLER_23_112
*1203 FILLER_23_23
*1204 FILLER_23_58
*1205 FILLER_23_61
*1206 FILLER_23_69
*1213 FILLER_24_123
*1214 FILLER_24_125
*1215 FILLER_24_151
*1216 FILLER_24_161
*1217 FILLER_24_163
*1209 FILLER_24_23
*1210 FILLER_24_41
*1211 FILLER_24_51
*1212 FILLER_24_77
*1220 FILLER_25_106
*1221 FILLER_25_151
*1222 FILLER_25_158
*1223 FILLER_25_162
*1218 FILLER_25_51
*1219 FILLER_25_64
*1233 FILLER_26_107
*1234 FILLER_26_111
*1235 FILLER_26_134
*1236 FILLER_26_148
*1237 FILLER_26_154
*1238 FILLER_26_162
*1224 FILLER_26_31
*1225 FILLER_26_55
*1226 FILLER_26_59
*1227 FILLER_26_61
*1228 FILLER_26_63
*1229 FILLER_26_68
*1230 FILLER_26_79
*1231 FILLER_26_88
*1232 FILLER_26_91
*1013 FILLER_2_0
*1019 FILLER_2_131
*1014 FILLER_2_15
*1015 FILLER_2_29
*1016 FILLER_2_40
*1017 FILLER_2_77
*1018 FILLER_2_91
*1020 FILLER_3_0
*1024 FILLER_3_121
*1025 FILLER_3_123
*1026 FILLER_3_132
*1021 FILLER_3_25
*1022 FILLER_3_81
*1023 FILLER_3_85
*1027 FILLER_4_11
*1029 FILLER_4_128
*1030 FILLER_4_136
*1031 FILLER_4_159
*1032 FILLER_4_163
*1028 FILLER_4_81
*1033 FILLER_5_0
*1035 FILLER_5_138
*1034 FILLER_5_88
*1036 FILLER_6_0
*1041 FILLER_6_101
*1042 FILLER_6_112
*1043 FILLER_6_119
*1044 FILLER_6_121
*1045 FILLER_6_147
*1046 FILLER_6_149
*1047 FILLER_6_151
*1048 FILLER_6_162
*1037 FILLER_6_2
*1038 FILLER_6_89
*1039 FILLER_6_95
*1040 FILLER_6_99
*1050 FILLER_7_112
*1051 FILLER_7_118
*1052 FILLER_7_121
*1053 FILLER_7_126
*1054 FILLER_7_132
*1055 FILLER_7_134
*1056 FILLER_7_143
*1057 FILLER_7_145
*1058 FILLER_7_161
*1059 FILLER_7_163
*1049 FILLER_7_20
*1060 FILLER_8_0
*1064 FILLER_8_126
*1065 FILLER_8_148
*1066 FILLER_8_151
*1067 FILLER_8_157
*1068 FILLER_8_161
*1069 FILLER_8_163
*1061 FILLER_8_2
*1062 FILLER_8_89
*1063 FILLER_8_91
*1072 FILLER_9_103
*1073 FILLER_9_107
*1074 FILLER_9_134
*1075 FILLER_9_152
*1076 FILLER_9_160
*1070 FILLER_9_61
*1071 FILLER_9_93
*744 TAP_TAPCELL_ROW_0_0
*745 TAP_TAPCELL_ROW_0_1
*746 TAP_TAPCELL_ROW_0_2
*747 TAP_TAPCELL_ROW_0_3
*748 TAP_TAPCELL_ROW_0_4
*771 TAP_TAPCELL_ROW_10_27
*772 TAP_TAPCELL_ROW_10_28
*773 TAP_TAPCELL_ROW_10_29
*774 TAP_TAPCELL_ROW_11_30
*775 TAP_TAPCELL_ROW_11_31
*776 TAP_TAPCELL_ROW_12_32
*777 TAP_TAPCELL_ROW_12_33
*778 TAP_TAPCELL_ROW_12_34
*779 TAP_TAPCELL_ROW_13_35
*780 TAP_TAPCELL_ROW_13_36
*781 TAP_TAPCELL_ROW_14_37
*782 TAP_TAPCELL_ROW_14_38
*783 TAP_TAPCELL_ROW_14_39
*784 TAP_TAPCELL_ROW_15_40
*785 TAP_TAPCELL_ROW_15_41
*786 TAP_TAPCELL_ROW_16_42
*787 TAP_TAPCELL_ROW_16_43
*788 TAP_TAPCELL_ROW_16_44
*789 TAP_TAPCELL_ROW_17_45
*790 TAP_TAPCELL_ROW_17_46
*791 TAP_TAPCELL_ROW_18_47
*792 TAP_TAPCELL_ROW_18_48
*793 TAP_TAPCELL_ROW_18_49
*794 TAP_TAPCELL_ROW_19_50
*795 TAP_TAPCELL_ROW_19_51
*749 TAP_TAPCELL_ROW_1_5
*750 TAP_TAPCELL_ROW_1_6
*796 TAP_TAPCELL_ROW_20_52
*797 TAP_TAPCELL_ROW_20_53
*798 TAP_TAPCELL_ROW_20_54
*799 TAP_TAPCELL_ROW_21_55
*800 TAP_TAPCELL_ROW_21_56
*801 TAP_TAPCELL_ROW_22_57
*802 TAP_TAPCELL_ROW_22_58
*803 TAP_TAPCELL_ROW_22_59
*804 TAP_TAPCELL_ROW_23_60
*805 TAP_TAPCELL_ROW_23_61
*806 TAP_TAPCELL_ROW_24_62
*807 TAP_TAPCELL_ROW_24_63
*808 TAP_TAPCELL_ROW_24_64
*809 TAP_TAPCELL_ROW_25_65
*810 TAP_TAPCELL_ROW_25_66
*811 TAP_TAPCELL_ROW_26_67
*812 TAP_TAPCELL_ROW_26_68
*813 TAP_TAPCELL_ROW_26_69
*814 TAP_TAPCELL_ROW_26_70
*815 TAP_TAPCELL_ROW_26_71
*751 TAP_TAPCELL_ROW_2_7
*752 TAP_TAPCELL_ROW_2_8
*753 TAP_TAPCELL_ROW_2_9
*754 TAP_TAPCELL_ROW_3_10
*755 TAP_TAPCELL_ROW_3_11
*756 TAP_TAPCELL_ROW_4_12
*757 TAP_TAPCELL_ROW_4_13
*758 TAP_TAPCELL_ROW_4_14
*759 TAP_TAPCELL_ROW_5_15
*760 TAP_TAPCELL_ROW_5_16
*761 TAP_TAPCELL_ROW_6_17
*762 TAP_TAPCELL_ROW_6_18
*763 TAP_TAPCELL_ROW_6_19
*764 TAP_TAPCELL_ROW_7_20
*765 TAP_TAPCELL_ROW_7_21
*766 TAP_TAPCELL_ROW_8_22
*767 TAP_TAPCELL_ROW_8_23
*768 TAP_TAPCELL_ROW_8_24
*769 TAP_TAPCELL_ROW_9_25
*770 TAP_TAPCELL_ROW_9_26
*579 _119_/_128_
*578 _119_/_129_
*577 _119_/_130_
*576 _119_/_131_
*575 _119_/_132_
*574 _119_/_133_
*573 _119_/_134_
*572 _119_/_135_
*571 _119_/_136_
*570 _119_/_137_
*569 _119_/_138_
*568 _119_/_139_
*567 _119_/_140_
*566 _119_/_141_
*565 _119_/_142_
*564 _119_/_143_
*563 _119_/_144_
*562 _119_/_145_
*561 _119_/_146_
*560 _119_/_147_
*559 _119_/_148_
*558 _119_/_149_
*557 _119_/_150_
*556 _119_/_151_
*555 _119_/_152_
*554 _119_/_153_
*553 _119_/_154_
*552 _119_/_155_
*551 _119_/_156_
*550 _119_/_157_
*549 _119_/_158_
*548 _119_/_159_
*547 _119_/_160_
*546 _119_/_161_
*545 _119_/_162_
*544 _119_/_163_
*543 _119_/_164_
*542 _119_/_165_
*541 _119_/_166_
*540 _119_/_167_
*539 _119_/_168_
*538 _119_/_169_
*537 _119_/_170_
*536 _119_/_171_
*535 _119_/_172_
*534 _119_/_173_
*533 _119_/_174_
*532 _119_/_175_
*531 _119_/_176_
*530 _119_/_177_
*529 _119_/_178_
*528 _119_/_179_
*527 _119_/_180_
*526 _119_/_181_
*525 _119_/_182_
*524 _119_/_183_
*523 _119_/_184_
*522 _119_/_185_
*521 _119_/_186_
*520 _119_/_187_
*519 _119_/_188_
*518 _119_/_189_
*517 _119_/_190_
*516 _119_/_191_
*515 _119_/_192_
*514 _119_/_193_
*513 _119_/_194_
*512 _119_/_195_
*511 _119_/_196_
*510 _119_/_197_
*509 _119_/_198_
*508 _119_/_199_
*507 _119_/_200_
*506 _119_/_201_
*505 _119_/_202_
*504 _119_/_203_
*503 _119_/_204_
*502 _119_/_205_
*501 _119_/_206_
*500 _119_/_207_
*499 _119_/_208_
*498 _119_/_209_
*497 _119_/_210_
*496 _119_/_211_
*495 _119_/_212_
*494 _119_/_213_
*493 _119_/_214_
*492 _119_/_215_
*491 _119_/_216_
*490 _119_/_217_
*489 _119_/_218_
*488 _119_/_219_
*487 _119_/_220_
*486 _119_/_221_
*485 _119_/_222_
*484 _119_/_223_
*483 _119_/_224_
*482 _119_/_225_
*481 _119_/_226_
*480 _119_/_227_
*479 _119_/_228_
*478 _119_/_229_
*580 _119_/_230_
*702 _119_/_231_
*703 _119_/_232_
*704 _119_/_233_
*705 _119_/_234_
*706 _119_/_235_
*707 _119_/_236_
*708 _119_/_237_
*709 _119_/_238_
*710 _119_/_239_
*711 _119_/_240_
*712 _119_/_241_
*713 _119_/_242_
*714 _119_/_243_
*715 _119_/_244_
*716 _119_/_245_
*717 _119_/_246_
*718 _119_/_247_
*719 _119_/_248_
*720 _119_/_249_
*721 _119_/_250_
*722 _119_/_251_
*723 _119_/_252_
*724 _119_/_253_
*725 _119_/_254_
*726 _119_/_255_
*727 _119_/_256_
*728 _119_/_257_
*729 _119_/_258_
*730 _119_/_259_
*731 _119_/_260_
*732 _119_/_261_
*733 _119_/_262_
*734 _119_/_263_
*735 _119_/_264_
*736 _119_/_265_
*737 _119_/_266_
*738 _119_/_267_
*739 _119_/_268_
*740 _119_/_269_
*741 _119_/_270_
*742 _119_/_271_
*743 _119_/_272_
*951 _119_/place146
*877 _119_/place147
*952 _119_/place148
*878 _119_/place149
*953 _119_/place150
*880 _119_/place152
*954 _119_/place153
*881 _119_/place154
*955 _119_/place155
*882 _119_/place156
*883 _119_/place157
*884 _119_/place158
*885 _119_/place159
*886 _119_/place160
*887 _119_/place161
*888 _119_/place162
*889 _119_/place163
*890 _119_/place164
*891 _119_/place165
*892 _119_/place166
*893 _119_/place167
*956 _119_/place168
*894 _119_/place169
*897 _119_/place170
*896 _119_/place171
*898 _119_/place172
*902 _119_/place180
*905 _119_/place181
*901 _119_/place182
*907 _119_/place183
*906 _119_/place184
*908 _119_/place185
*909 _119_/place186
*910 _119_/place187
*900 _119_/place188
*913 _119_/place189
*912 _119_/place190
*933 _119_/place210
*972 _119_/rebuffer229
*974 _119_/rebuffer231
*975 _119_/rebuffer232
*976 _119_/rebuffer233
*977 _119_/rebuffer234
*979 _119_/rebuffer236
*980 _119_/rebuffer237
*981 _119_/rebuffer238
*872 _119_/rebuffer240
*876 _119_/rebuffer244
*879 _119_/rebuffer245
*875 _119_/rebuffer247
*700 _119__1
*701 _119__2
*581 _121_
*582 _122_
*583 _123_
*584 _124_
*585 _125_
*586 _126_
*587 _127_
*588 _128_
*589 _129_
*590 _130_
*591 _131_
*592 _132_
*593 _133_
*594 _134_
*595 _135_
*596 _136_
*597 _137_
*598 _138_
*599 _139_
*600 _140_
*601 _141_
*602 _142_
*603 _143_
*604 _144_
*605 _145_
*606 _146_
*607 _147_
*608 _148_
*609 _149_
*610 _150_
*611 _151_
*612 _152_
*613 _153_
*614 _154_
*615 _155_
*616 _156_
*617 _157_
*618 _158_
*619 _159_
*620 _160_
*621 _161_
*622 _162_
*623 _163_
*624 _164_
*625 _165_
*626 _166_
*627 _167_
*628 _168_
*629 _169_
*630 _170_
*631 _171_
*632 _172_
*633 _173_
*634 _174_
*635 _175_
*636 _176_
*637 _177_
*638 _178_
*639 _179_
*640 _180_
*641 _181_
*642 _182_
*643 _183_
*644 _184_
*645 _185_
*646 _186_
*647 _187_
*648 _188_
*649 _189_
*650 _190_
*651 _191_
*652 _192_
*653 _193_
*654 _194_
*655 _195_
*656 _196_
*657 _197_
*658 _198_
*659 _199_
*660 _200_
*661 _201_
*662 _202_
*663 _203_
*664 _204_
*946 clkbuf_0_clk
*962 clkbuf_2_0__f_clk
*963 clkbuf_2_1__f_clk
*964 clkbuf_2_2__f_clk
*965 clkbuf_2_3__f_clk
*966 clkload0
*967 clkload1
*968 clkload2
*988 clone268
*990 clone271
*665 ctrl\.state\.out\[0\]\$_DFF_P_
*666 ctrl\.state\.out\[1\]\$_DFF_P_
*667 ctrl\.state\.out\[2\]\$_DFF_P_
*668 dpath\.a_reg\.out\[0\]\$_DFFE_PP_
*669 dpath\.a_reg\.out\[10\]\$_DFFE_PP_
*670 dpath\.a_reg\.out\[11\]\$_DFFE_PP_
*671 dpath\.a_reg\.out\[12\]\$_DFFE_PP_
*672 dpath\.a_reg\.out\[13\]\$_DFFE_PP_
*673 dpath\.a_reg\.out\[14\]\$_DFFE_PP_
*674 dpath\.a_reg\.out\[15\]\$_DFFE_PP_
*675 dpath\.a_reg\.out\[1\]\$_DFFE_PP_
*676 dpath\.a_reg\.out\[2\]\$_DFFE_PP_
*677 dpath\.a_reg\.out\[3\]\$_DFFE_PP_
*678 dpath\.a_reg\.out\[4\]\$_DFFE_PP_
*679 dpath\.a_reg\.out\[5\]\$_DFFE_PP_
*680 dpath\.a_reg\.out\[6\]\$_DFFE_PP_
*681 dpath\.a_reg\.out\[7\]\$_DFFE_PP_
*682 dpath\.a_reg\.out\[8\]\$_DFFE_PP_
*683 dpath\.a_reg\.out\[9\]\$_DFFE_PP_
*684 dpath\.b_reg\.out\[0\]\$_DFFE_PP_
*685 dpath\.b_reg\.out\[10\]\$_DFFE_PP_
*686 dpath\.b_reg\.out\[11\]\$_DFFE_PP_
*687 dpath\.b_reg\.out\[12\]\$_DFFE_PP_
*688 dpath\.b_reg\.out\[13\]\$_DFFE_PP_
*689 dpath\.b_reg\.out\[14\]\$_DFFE_PP_
*690 dpath\.b_reg\.out\[15\]\$_DFFE_PP_
*691 dpath\.b_reg\.out\[1\]\$_DFFE_PP_
*692 dpath\.b_reg\.out\[2\]\$_DFFE_PP_
*693 dpath\.b_reg\.out\[3\]\$_DFFE_PP_
*694 dpath\.b_reg\.out\[4\]\$_DFFE_PP_
*695 dpath\.b_reg\.out\[5\]\$_DFFE_PP_
*696 dpath\.b_reg\.out\[6\]\$_DFFE_PP_
*697 dpath\.b_reg\.out\[7\]\$_DFFE_PP_
*698 dpath\.b_reg\.out\[8\]\$_DFFE_PP_
*699 dpath\.b_reg\.out\[9\]\$_DFFE_PP_
*823 input10
*824 input11
*825 input12
*826 input13
*827 input14
*828 input15
*829 input16
*830 input17
*831 input18
*832 input19
*833 input20
*834 input21
*835 input22
*836 input23
*837 input24
*838 input25
*839 input26
*840 input27
*841 input28
*842 input29
*816 input3
*843 input30
*844 input31
*845 input32
*846 input33
*847 input34
*848 input35
*849 input36
*850 input37
*817 input4
*818 input5
*819 input6
*820 input7
*821 input8
*822 input9
*851 output38
*852 output39
*853 output40
*854 output41
*855 output42
*856 output43
*857 output44
*858 output45
*859 output46
*860 output47
*861 output48
*862 output49
*863 output50
*864 output51
*865 output52
*866 output53
*867 output54
*868 output55
*947 place134
*948 place135
*871 place136
*870 place137
*869 place138
*949 place139
*950 place140
*874 place141
*873 place142
*899 place173
*895 place174
*957 place175
*958 place176
*959 place177
*903 place178
*904 place179
*914 place191
*915 place192
*916 place193
*917 place194
*918 place195
*919 place196
*920 place197
*921 place198
*922 place199
*923 place200
*925 place201
*926 place202
*927 place203
*928 place204
*924 place205
*929 place206
*930 place207
*931 place208
*932 place209
*911 place211
*934 place212
*935 place213
*936 place214
*937 place215
*938 place216
*939 place217
*940 place218
*941 place219
*942 place220
*960 place221
*943 place222
*961 place223
*944 place224
*945 place225
*969 rebuffer226
*970 rebuffer227
*971 rebuffer228
*973 rebuffer230
*978 rebuffer235
*982 rebuffer262
*983 rebuffer263
*984 rebuffer264
*985 rebuffer265
*986 rebuffer266
*987 rebuffer267
*989 rebuffer269
*991 rebuffer272

*PORTS
clk I
req_msg[0] I
req_msg[10] I
req_msg[11] I
req_msg[12] I
req_msg[13] I
req_msg[14] I
req_msg[15] I
req_msg[16] I
req_msg[17] I
req_msg[18] I
req_msg[19] I
req_msg[1] I
req_msg[20] I
req_msg[21] I
req_msg[22] I
req_msg[23] I
req_msg[24] I
req_msg[25] I
req_msg[26] I
req_msg[27] I
req_msg[28] I
req_msg[29] I
req_msg[2] I
req_msg[30] I
req_msg[31] I
req_msg[3] I
req_msg[4] I
req_msg[5] I
req_msg[6] I
req_msg[7] I
req_msg[8] I
req_msg[9] I
req_rdy O
req_val I
reset I
resp_msg[0] O
resp_msg[10] O
resp_msg[11] O
resp_msg[12] O
resp_msg[13] O
resp_msg[14] O
resp_msg[15] O
resp_msg[1] O
resp_msg[2] O
resp_msg[3] O
resp_msg[4] O
resp_msg[5] O
resp_msg[6] O
resp_msg[7] O
resp_msg[8] O
resp_msg[9] O
resp_rdy I
resp_val O

*D_NET *2 0.00364601
*CONN
*I *939:A I *D sky130_fd_sc_hd__buf_4
*I *523:A I *D sky130_fd_sc_hd__xnor2_1
*I *674:Q O *D sky130_fd_sc_hd__edfxtp_1
*CAP
1 *939:A 0.000257291
2 *523:A 0.000642795
3 *674:Q 0.000500404
4 *2:6 0.00140049
5 *523:A *504:B2 7.6598e-05
6 *523:A *519:A 6.90269e-06
7 *523:A *664:A1 0.000107187
8 *523:A *674:D 8.90914e-05
9 *523:A *674:CLK 0.000160047
10 *523:A *891:A 1.83511e-05
11 *523:A *392:255 1.27534e-05
12 *939:A *663:B 2.39545e-05
13 *939:A *674:D 0.000167416
14 *939:A *259:87 0
15 *939:A *428:10 6.36477e-05
16 *939:A *448:84 9.46208e-05
17 *2:6 *674:D 2.44599e-05
*RES
1 *674:Q *2:6 16.3505 
2 *2:6 *523:A 30.1417 
3 *2:6 *939:A 26.2056 
*END

*D_NET *3 0.0013235
*CONN
*I *585:B I *D sky130_fd_sc_hd__or2_4
*I *960:A I *D sky130_fd_sc_hd__buf_4
*I *667:Q O *D sky130_fd_sc_hd__dfxtp_2
*CAP
1 *585:B 0.000190957
2 *960:A 0.000342531
3 *667:Q 0.000533488
4 *585:B *944:A 3.25052e-05
5 *960:A *581:A 6.60196e-05
6 *960:A *638:A0 0
7 *960:A *903:A 0.000121004
8 *960:A *944:A 3.57779e-05
9 *960:A *945:A 1.21461e-06
10 *960:A *37:10 0
*RES
1 *667:Q *960:A 35.3154 
2 *667:Q *585:B 31.4388 
*END

*D_NET *4 0.00344578
*CONN
*I *656:B1 I *D sky130_fd_sc_hd__a21oi_2
*I *581:A I *D sky130_fd_sc_hd__clkinv_1
*I *666:Q O *D sky130_fd_sc_hd__dfxtp_1
*CAP
1 *656:B1 0.000226364
2 *581:A 0.000378422
3 *666:Q 5.13454e-05
4 *4:6 0.000656132
5 *581:A *575:B 0.000209343
6 *581:A *638:A0 0
7 *581:A *696:D 0
8 *581:A *37:10 0
9 *656:B1 *648:C1 1.19856e-05
10 *656:B1 *656:A1 0.000217951
11 *656:B1 *657:A1 3.16165e-05
12 *656:B1 *659:B_N 0.000897138
13 *656:B1 *103:12 4.50137e-05
14 *656:B1 *392:8 0.000403136
15 *4:6 *659:B_N 0.000217937
16 *4:6 *103:12 3.33771e-05
17 *960:A *581:A 6.60196e-05
*RES
1 *666:Q *4:6 11.6364 
2 *4:6 *581:A 27.9709 
3 *4:6 *656:B1 21.8121 
*END

*D_NET *5 0.00259677
*CONN
*I *925:A I *D sky130_fd_sc_hd__buf_4
*I *522:B I *D sky130_fd_sc_hd__xor2_1
*I *689:Q O *D sky130_fd_sc_hd__edfxtp_1
*CAP
1 *925:A 0.000272247
2 *522:B 0
3 *689:Q 0.000528434
4 *5:10 0.000800681
5 *925:A *520:A 0.000179286
6 *925:A *520:B 6.01944e-06
7 *925:A *522:A 0.000131543
8 *925:A *256:8 2.57627e-05
9 *925:A *259:48 8.57967e-05
10 *925:A *259:65 1.45799e-05
11 *925:A *414:8 0.000114271
12 *925:A *474:100 0.000120749
13 *5:10 *520:B 1.79196e-05
14 *5:10 *522:A 1.79196e-05
15 *5:10 *689:D 0.000281558
16 *5:10 *689:DE 0
17 *5:10 *453:36 0
*RES
1 *689:Q *5:10 23.513 
2 *5:10 *522:B 13.7491 
3 *5:10 *925:A 23.6453 
*END

*D_NET *6 0.00399036
*CONN
*I *518:B I *D sky130_fd_sc_hd__xor2_1
*I *926:A I *D sky130_fd_sc_hd__buf_4
*I *688:Q O *D sky130_fd_sc_hd__edfxtp_1
*CAP
1 *518:B 0.000111557
2 *926:A 0.000203123
3 *688:Q 0.000948416
4 *6:10 0.0012631
5 *518:B *672:D 3.99001e-05
6 *518:B *673:DE 3.20264e-05
7 *518:B *856:A 0
8 *518:B *259:87 3.27437e-05
9 *518:B *392:255 8.5976e-05
10 *926:A *626:A0 4.95892e-05
11 *926:A *651:C 0.000158002
12 *926:A *672:D 1.50924e-05
13 *926:A *453:26 0.000398179
14 *6:10 *673:DE 0.000451201
15 *6:10 *688:D 7.29701e-05
16 *6:10 *688:DE 1.99543e-06
17 *6:10 *453:30 9.60373e-05
18 *6:10 *453:36 3.04523e-05
*RES
1 *688:Q *6:10 32.7935 
2 *6:10 *926:A 20.204 
3 *6:10 *518:B 17.2421 
*END

*D_NET *7 0.000537033
*CONN
*I *515:A I *D sky130_fd_sc_hd__xor2_1
*I *927:A I *D sky130_fd_sc_hd__buf_4
*I *687:Q O *D sky130_fd_sc_hd__edfxtp_1
*CAP
1 *515:A 7.51463e-05
2 *927:A 0.000111406
3 *687:Q 2.25415e-05
4 *7:6 0.000209094
5 *927:A *515:B 0
6 *927:A *644:S 0.000118845
*RES
1 *687:Q *7:6 9.69524 
2 *7:6 *927:A 21.3269 
3 *7:6 *515:A 11.0817 
*END

*D_NET *8 0.00259975
*CONN
*I *928:A I *D sky130_fd_sc_hd__buf_4
*I *539:A I *D sky130_fd_sc_hd__xor2_1
*I *686:Q O *D sky130_fd_sc_hd__edfxtp_1
*CAP
1 *928:A 0.000500897
2 *539:A 0.000342162
3 *686:Q 0
4 *8:4 0.000843059
5 *539:A *686:D 8.21184e-05
6 *539:A *740:A 6.0471e-05
7 *539:A *259:33 0.000112902
8 *539:A *476:69 4.66107e-05
9 *928:A *513:A 2.81678e-06
10 *928:A *620:A0 3.87022e-06
11 *928:A *651:B 0.000151494
12 *928:A *651:D 9.63048e-05
13 *928:A *740:A 7.41902e-05
14 *928:A *740:B 6.07896e-05
15 *928:A *895:A 6.78364e-06
16 *928:A *282:14 9.93876e-06
17 *928:A *283:17 0.000205343
*RES
1 *686:Q *8:4 9.24915 
2 *8:4 *539:A 24.8247 
3 *8:4 *928:A 28.98 
*END

*D_NET *9 0.0032119
*CONN
*I *536:A I *D sky130_fd_sc_hd__xor2_1
*I *924:A I *D sky130_fd_sc_hd__buf_4
*I *685:Q O *D sky130_fd_sc_hd__edfxtp_1
*CAP
1 *536:A 9.89297e-05
2 *924:A 5.31662e-05
3 *685:Q 0.000979891
4 *9:10 0.00113199
5 *536:A *650:C 0.000153929
6 *536:A *259:101 3.20264e-05
7 *536:A *259:120 4.9e-05
8 *924:A *531:B 0
9 *924:A *614:A1 1.43698e-05
10 *924:A *174:10 6.27718e-05
11 *9:10 *531:A 2.58616e-05
12 *9:10 *531:B 2.23126e-05
13 *9:10 *614:A1 4.43444e-05
14 *9:10 *685:D 0.000250551
15 *9:10 *174:10 0.000287728
16 *9:10 *259:128 5.03013e-06
*RES
1 *685:Q *9:10 27.0809 
2 *9:10 *924:A 10.9612 
3 *9:10 *536:A 21.3269 
*END

*D_NET *10 0.00342022
*CONN
*I *914:A I *D sky130_fd_sc_hd__buf_4
*I *530:B I *D sky130_fd_sc_hd__xnor3_2
*I *699:Q O *D sky130_fd_sc_hd__edfxtp_1
*CAP
1 *914:A 0.000250996
2 *530:B 0.00037192
3 *699:Q 0.000662179
4 *10:6 0.00128509
5 *530:B *699:D 6.37652e-06
6 *530:B *437:53 1.39573e-05
7 *914:A *847:A 0
8 *914:A *403:12 0.000486208
9 *914:A *437:68 0.000102632
10 *914:A *448:63 1.22289e-05
11 *10:6 *699:D 0.000228627
*RES
1 *699:Q *10:6 19.6781 
2 *10:6 *530:B 14.8434 
3 *10:6 *914:A 27.0333 
*END

*D_NET *11 0.00304189
*CONN
*I *527:B I *D sky130_fd_sc_hd__xnor3_2
*I *915:A I *D sky130_fd_sc_hd__buf_4
*I *698:Q O *D sky130_fd_sc_hd__edfxtp_1
*CAP
1 *527:B 0.000101719
2 *915:A 0
3 *698:Q 0.000903808
4 *11:20 0.00100553
5 *527:B *404:10 0.000271272
6 *11:20 *614:A0 6.92705e-05
7 *11:20 *616:A2 0.000497261
8 *11:20 *683:DE 0
9 *11:20 *392:225 0
10 *11:20 *403:12 1.33419e-05
11 *11:20 *404:10 7.67765e-05
12 *11:20 *437:53 0.000102918
*RES
1 *698:Q *11:20 39.4743 
2 *11:20 *915:A 9.24915 
3 *11:20 *527:B 12.7697 
*END

*D_NET *12 0.00229084
*CONN
*I *916:A I *D sky130_fd_sc_hd__buf_4
*I *713:B I *D sky130_fd_sc_hd__xor2_2
*I *697:Q O *D sky130_fd_sc_hd__edfxtp_1
*CAP
1 *916:A 0.000197074
2 *713:B 0.000512236
3 *697:Q 0.000315161
4 *713:B *613:A1 4.42462e-05
5 *713:B *613:B1 2.40924e-05
6 *713:B *866:A 0
7 *713:B *437:32 8.75727e-05
8 *916:A *610:B1 2.65667e-05
9 *916:A *932:A 0.000366554
10 *916:A *392:190 0.000717333
11 *916:A *448:25 0
*RES
1 *697:Q *713:B 24.8191 
2 *713:B *916:A 18.2554 
*END

*D_NET *13 0.00128431
*CONN
*I *917:A I *D sky130_fd_sc_hd__buf_4
*I *575:B I *D sky130_fd_sc_hd__xor2_2
*I *696:Q O *D sky130_fd_sc_hd__edfxtp_1
*CAP
1 *917:A 0
2 *575:B 0.000322994
3 *696:Q 3.84893e-05
4 *13:6 0.000361484
5 *575:B *638:A0 0
6 *575:B *918:A 0.000143027
7 *575:B *943:A 0.000187548
8 *13:6 *436:14 2.14228e-05
9 *581:A *575:B 0.000209343
*RES
1 *696:Q *13:6 10.2498 
2 *13:6 *575:B 19.227 
3 *13:6 *917:A 9.24915 
*END

*D_NET *14 0.00161524
*CONN
*I *571:A I *D sky130_fd_sc_hd__xor2_2
*I *970:A I *D sky130_fd_sc_hd__buf_4
*I *695:Q O *D sky130_fd_sc_hd__edfxtp_1
*CAP
1 *571:A 0.000355699
2 *970:A 0.000419606
3 *695:Q 0
4 *14:4 0.000775306
5 *970:A *638:A0 3.44412e-06
6 *970:A *392:18 6.11893e-05
7 *970:A *432:10 0
*RES
1 *695:Q *14:4 9.24915 
2 *14:4 *970:A 26.4829 
3 *14:4 *571:A 16.0129 
*END

*D_NET *15 0.0041828
*CONN
*I *562:A I *D sky130_fd_sc_hd__xnor3_2
*I *919:A I *D sky130_fd_sc_hd__buf_4
*I *694:Q O *D sky130_fd_sc_hd__edfxtp_1
*CAP
1 *562:A 0.00109245
2 *919:A 0.000322445
3 *694:Q 0
4 *15:4 0.00141489
5 *562:A *562:B 0.000306482
6 *562:A *599:A1 3.12214e-05
7 *562:A *599:S 6.27782e-05
8 *562:A *935:A 0.000112367
9 *562:A *952:A 7.62745e-05
10 *562:A *408:20 0.000194163
11 *919:A *599:A1 2.2909e-05
12 *919:A *601:A1 0.000332344
13 *919:A *166:24 0.000170607
14 *919:A *392:30 4.38655e-05
*RES
1 *694:Q *15:4 9.24915 
2 *15:4 *919:A 26.8982 
3 *15:4 *562:A 31.156 
*END

*D_NET *16 0.00300377
*CONN
*I *971:A I *D sky130_fd_sc_hd__buf_4
*I *557:C I *D sky130_fd_sc_hd__xnor3_2
*I *693:Q O *D sky130_fd_sc_hd__edfxtp_1
*CAP
1 *971:A 0.000707999
2 *557:C 0
3 *693:Q 0.000117204
4 *16:6 0.000825202
5 *971:A *541:B1 0.000120745